# generated using pymatgen
data_H2CO
_symmetry_space_group_name_H-M   Pna2_1
_cell_length_a   13.31000000
_cell_length_b   4.09000000
_cell_length_c   5.76900000
_cell_angle_alpha   90.00000000
_cell_angle_beta   90.00000000
_cell_angle_gamma   90.00000000
_symmetry_Int_Tables_number   33
_chemical_formula_structural   H2CO
_chemical_formula_sum   'H16 C8 O8'
_cell_volume   314.05224510
_cell_formula_units_Z   8
loop_
 _symmetry_equiv_pos_site_id
 _symmetry_equiv_pos_as_xyz
  1  'x, y, z'
  2  '-x, -y, z+1/2'
  3  '-x+1/2, y+1/2, z+1/2'
  4  'x+1/2, -y+1/2, z'
loop_
 _atom_site_type_symbol
 _atom_site_label
 _atom_site_symmetry_multiplicity
 _atom_site_fract_x
 _atom_site_fract_y
 _atom_site_fract_z
 _atom_site_occupancy
  H  H0  4  0.00967691  0.56564052  0.30802413  1.0
  H  H1  4  0.07760599  0.86310242  0.46831810  1.0
  H  H2  4  0.11595096  0.44788629  0.47374865  1.0
  H  H3  4  0.16632530  0.93488596  0.86739785  1.0
  C  C4  4  0.08451427  0.64073032  0.36461619  1.0
  C  C5  4  0.15120294  0.70404522  0.15460246  1.0
  O  O6  4  0.11559806  0.91072925  0.98815259  1.0
  O  O7  4  0.23293370  0.56766064  0.14603995  1.0
