# generated using pymatgen
data_H3C3O
_symmetry_space_group_name_H-M   Pna2_1
_cell_length_a   7.93400000
_cell_length_b   12.60600000
_cell_length_c   5.51100000
_cell_angle_alpha   90.00000000
_cell_angle_beta   90.00000000
_cell_angle_gamma   90.00000000
_symmetry_Int_Tables_number   33
_chemical_formula_structural   H3C3O
_chemical_formula_sum   'H24 C24 O8'
_cell_volume   551.18819804
_cell_formula_units_Z   8
loop_
 _symmetry_equiv_pos_site_id
 _symmetry_equiv_pos_as_xyz
  1  'x, y, z'
  2  '-x, -y, z+1/2'
  3  '-x+1/2, y+1/2, z+1/2'
  4  'x+1/2, -y+1/2, z'
loop_
 _atom_site_type_symbol
 _atom_site_label
 _atom_site_symmetry_multiplicity
 _atom_site_fract_x
 _atom_site_fract_y
 _atom_site_fract_z
 _atom_site_occupancy
  H  H0  4  0.02312958  0.68791303  0.08644091  1.0
  H  H1  4  0.04765927  0.14854526  0.32302093  1.0
  H  H2  4  0.07491612  0.51612772  0.17485977  1.0
  H  H3  4  0.11028204  0.95540055  0.29056459  1.0
  H  H4  4  0.17794474  0.27524224  0.03328325  1.0
  H  H5  4  0.23698090  0.82470228  0.05840851  1.0
  C  C6  4  0.13051437  0.11946469  0.18117260  1.0
  C  C7  4  0.15652976  0.54580142  0.31647275  1.0
  C  C8  4  0.16523058  0.01085071  0.16239104  1.0
  C  C9  4  0.18759508  0.65445788  0.33619783  1.0
  C  C10  4  0.20416941  0.19101001  0.01819734  1.0
  C  C11  4  0.22784951  0.47387502  0.47915501  1.0
  O  O12  4  0.11072239  0.72415057  0.18058662  1.0
  O  O13  4  0.18656948  0.36875411  0.46058108  1.0
