# generated using pymatgen
data_H17C19N5O2
_symmetry_space_group_name_H-M   P2_1/c
_cell_length_a   16.11500000
_cell_length_b   13.37150000
_cell_length_c   17.58600000
_cell_angle_alpha   90.00000000
_cell_angle_beta   116.78800000
_cell_angle_gamma   90.00000000
_symmetry_Int_Tables_number   14
_chemical_formula_structural   H17C19N5O2
_chemical_formula_sum   'H136 C152 N40 O16'
_cell_volume   3382.77742926
_cell_formula_units_Z   8
loop_
 _symmetry_equiv_pos_site_id
 _symmetry_equiv_pos_as_xyz
  1  'x, y, z'
  2  '-x, -y, -z'
  3  '-x, y+1/2, -z+1/2'
  4  'x, -y+1/2, z+1/2'
loop_
 _atom_site_type_symbol
 _atom_site_label
 _atom_site_symmetry_multiplicity
 _atom_site_fract_x
 _atom_site_fract_y
 _atom_site_fract_z
 _atom_site_occupancy
  H  H0  4  0.06286218  0.14355991  0.21794542  1.0
  H  H1  4  0.06687212  0.03292730  0.33288158  1.0
  H  H2  4  0.07182357  0.54610777  0.16758838  1.0
  H  H3  4  0.08803905  0.23512331  0.95998308  1.0
  H  H4  4  0.08914882  0.11889583  0.61604456  1.0
  H  H5  4  0.09499984  0.64859343  0.82735102  1.0
  H  H6  4  0.12353901  0.20461680  0.34871145  1.0
  H  H7  4  0.12402083  0.53462193  0.53021250  1.0
  H  H8  4  0.13172001  0.71872901  0.59099472  1.0
  H  H9  4  0.13485751  0.61763643  0.46092788  1.0
  H  H10  4  0.16095433  0.13420851  0.51751064  1.0
  H  H11  4  0.16830782  0.63465410  0.38014306  1.0
  H  H12  4  0.17247910  0.17755533  0.76674414  1.0
  H  H13  4  0.18816223  0.50271045  0.30277313  1.0
  H  H14  4  0.21054725  0.51568778  0.96891005  1.0
  H  H15  4  0.21656452  0.73468647  0.54873387  1.0
  H  H16  4  0.24542835  0.68700790  0.98479801  1.0
  H  H17  4  0.29503314  0.54661736  0.84657612  1.0
  H  H18  4  0.29886509  0.19097217  0.64815872  1.0
  H  H19  4  0.30462502  0.19930853  0.26439397  1.0
  H  H20  4  0.32987886  0.24058484  0.03477341  1.0
  H  H21  4  0.33080464  0.12135185  0.41135482  1.0
  H  H22  4  0.34472006  0.02043657  0.26582971  1.0
  H  H23  4  0.35696513  0.65761986  0.20832392  1.0
  H  H24  4  0.36934415  0.02475823  0.68947887  1.0
  H  H25  4  0.37209006  0.61709583  0.69765031  1.0
  H  H26  4  0.37269617  0.53048143  0.52052446  1.0
  H  H27  4  0.37791949  0.72067405  0.47111367  1.0
  H  H28  4  0.38587552  0.60566358  0.60477015  1.0
  H  H29  4  0.39185182  0.14025349  0.80685661  1.0
  H  H30  4  0.43218453  0.13898039  0.56740447  1.0
  H  H31  4  0.47578040  0.73837010  0.57850089  1.0
  H  H32  4  0.48432544  0.18344685  0.33260561  1.0
  H  H33  4  0.49182180  0.51012051  0.15659646  1.0
  C  C34  4  0.07783045  0.06451889  0.21746828  1.0
  C  C35  4  0.07927362  0.00252621  0.28173475  1.0
  C  C36  4  0.09355759  0.08699400  0.08259994  1.0
  C  C37  4  0.09468628  0.02407238  0.15204256  1.0
  C  C38  4  0.09555426  0.59932421  0.77846924  1.0
  C  C39  4  0.10431735  0.54151141  0.12566620  1.0
  C  C40  4  0.11071118  0.63680751  0.71103742  1.0
  C  C41  4  0.11212804  0.18119068  0.92878786  1.0
  C  C42  4  0.11316503  0.05279343  0.59602118  1.0
  C  C43  4  0.12260177  0.74465175  0.70137930  1.0
  C  C44  4  0.12393690  0.07983426  0.95247708  1.0
  C  C45  4  0.13064568  0.21632603  0.86338644  1.0
  C  C46  4  0.13565254  0.62798191  0.10087150  1.0
  C  C47  4  0.15077457  0.01332539  0.90523683  1.0
  C  C48  4  0.15249233  0.06163699  0.54021485  1.0
  C  C49  4  0.15804703  0.15032656  0.81772108  1.0
  C  C50  4  0.16686382  0.04888312  0.83822820  1.0
  C  C51  4  0.17377533  0.61792779  0.04315592  1.0
  C  C52  4  0.18155138  0.52341501  0.01336332  1.0
  C  C53  4  0.31762288  0.23089868  0.15000971  1.0
  C  C54  4  0.32057437  0.16938873  0.21509979  1.0
  C  C55  4  0.33717129  0.19150854  0.08629403  1.0
  C  C56  4  0.34037926  0.53980797  0.91413489  1.0
  C  C57  4  0.34303024  0.06861202  0.21582923  1.0
  C  C58  4  0.35917591  0.05550547  0.45072450  1.0
  C  C59  4  0.36176478  0.09037694  0.08732016  1.0
  C  C60  4  0.36284968  0.74939461  0.35164397  1.0
  C  C61  4  0.36359222  0.02854993  0.15291303  1.0
  C  C62  4  0.36623691  0.60658083  0.25959921  1.0
  C  C63  4  0.37000922  0.64185636  0.33645682  1.0
  C  C64  4  0.37371971  0.50433239  0.24867923  1.0
  C  C65  4  0.37844530  0.62576250  0.96376138  1.0
  C  C66  4  0.38605821  0.06051798  0.81482108  1.0
  C  C67  4  0.38879599  0.02206631  0.89019116  1.0
  C  C68  4  0.39519681  0.08834545  0.95962670  1.0
  C  C69  4  0.41495230  0.06564483  0.53813827  1.0
  C  C70  4  0.43144377  0.61472255  0.05256536  1.0
  C  C71  4  0.44957349  0.51919107  0.08863710  1.0
  N  N72  4  0.11111437  0.57460158  0.65082934  1.0
  N  N73  4  0.11177783  0.04016483  0.02086924  1.0
  N  N74  4  0.12820228  0.72464273  0.12817391  1.0
  N  N75  4  0.16244092  0.58857348  0.42375889  1.0
  N  N76  4  0.20566303  0.70030405  0.01534625  1.0
  N  N77  4  0.36513775  0.72230693  0.92887732  1.0
  N  N78  4  0.37893833  0.04536690  0.02371788  1.0
  N  N79  4  0.38062993  0.57714676  0.39898009  1.0
  N  N80  4  0.38492889  0.57304045  0.65671760  1.0
  N  N81  4  0.46860305  0.69709502  0.10585423  1.0
  O  O82  4  0.07806415  0.17693036  0.08194568  1.0
  O  O83  4  0.12678556  0.69616137  0.25629395  1.0
  O  O84  4  0.35997116  0.68876604  0.79888446  1.0
  O  O85  4  0.41154506  0.17779691  0.95832783  1.0
